Version 4
SHEET 1 880 680
WIRE 272 16 224 16
WIRE 384 16 336 16
WIRE 224 160 224 16
WIRE 272 160 224 160
WIRE 384 176 384 16
WIRE 384 176 336 176
WIRE 464 176 384 176
WIRE 144 192 144 144
WIRE 144 192 96 192
WIRE 208 192 144 192
WIRE 272 192 208 192
WIRE 32 352 0 352
WIRE 64 352 32 352
WIRE 128 352 112 352
WIRE 160 352 128 352
WIRE 0 400 0 352
WIRE 112 400 112 352
WIRE 0 512 0 480
WIRE 112 512 112 480
FLAG 208 192 Vin+
FLAG 0 512 0
FLAG 112 512 0
FLAG -128 336 0
FLAG 32 352 15V
FLAG 128 352 6V
SYMBOL cap 96 176 R90
WINDOW 0 0 32 VBottom 2
WINDOW 3 32 32 VTop 2
SYMATTR InstName C1
SYMATTR Value .22µF
SYMBOL cap 336 0 R90
WINDOW 0 0 32 VBottom 2
WINDOW 3 32 32 VTop 2
SYMATTR InstName C2
SYMATTR Value 10pF
SYMBOL Opamps\\LT1357 304 112 R0
SYMATTR InstName U1
SYMBOL res 240 0 R90
WINDOW 0 0 56 VBottom 2
WINDOW 3 32 56 VTop 2
SYMATTR InstName R1
SYMBOL res 160 160 R180
WINDOW 0 36 76 Left 2
WINDOW 3 36 40 Left 2
SYMATTR InstName R2
SYMBOL voltage -128 208 R0
SYMATTR InstName V1
SYMBOL voltage 0 384 R0
WINDOW 123 0 0 Left 0
WINDOW 39 0 0 Left 0
SYMATTR InstName V2
SYMATTR Value 15
SYMBOL voltage 112 384 R0
WINDOW 123 0 0 Left 0
WINDOW 39 0 0 Left 0
SYMATTR InstName V3
SYMATTR Value 6
