Version 4
SHEET 1 880 680
WIRE -16 128 -80 128
WIRE 144 128 64 128
WIRE 336 128 224 128
WIRE 336 160 336 128
WIRE -80 192 -80 128
WIRE -80 288 -80 272
WIRE 336 288 336 224
WIRE 336 288 -80 288
FLAG 336 288 0
SYMBOL res 240 112 R90
WINDOW 0 0 56 VBottom 2
WINDOW 3 32 56 VTop 2
SYMATTR InstName R1
SYMATTR Value 5.67E10
SYMBOL ind -32 144 R270
WINDOW 0 32 56 VTop 2
WINDOW 3 5 56 VBottom 2
SYMATTR InstName L1
SYMATTR Value 1504300029
SYMBOL cap 320 160 R0
SYMATTR InstName C1
SYMATTR Value 3.594E-14
SYMBOL voltage -80 176 R0
WINDOW 123 24 124 Left 2
WINDOW 39 0 0 Left 0
SYMATTR InstName V1
SYMATTR Value ""
SYMATTR Value2 AC 1
TEXT -114 320 Left 2 !.ac dec 1000 1 100000
