Version 4
SHEET 1 1572 808
WIRE 528 -144 480 -144
WIRE 752 -144 528 -144
WIRE 1056 -144 752 -144
WIRE 1296 -144 1056 -144
WIRE 528 -112 528 -144
WIRE 1296 -32 1296 -144
WIRE 1264 -16 912 -16
WIRE 1488 0 1328 0
WIRE 1552 0 1488 0
WIRE 752 16 752 -144
WIRE 1264 16 1232 16
WIRE 144 48 64 48
WIRE 320 48 224 48
WIRE 528 64 528 -32
WIRE 576 64 528 64
WIRE 688 64 656 64
WIRE 1056 80 1056 -144
WIRE 64 96 64 48
WIRE 1184 112 1088 112
WIRE 1024 128 1008 128
WIRE 320 144 320 112
WIRE 592 144 416 144
WIRE 752 144 752 112
WIRE 752 144 672 144
WIRE 528 160 528 64
WIRE 752 176 752 144
WIRE 880 176 752 176
WIRE 912 176 912 -16
WIRE 912 176 880 176
WIRE 1008 176 1008 128
WIRE 1008 176 912 176
WIRE 416 208 416 144
WIRE 416 208 320 208
WIRE 448 208 416 208
WIRE 464 208 448 208
WIRE 752 224 752 176
WIRE 320 240 320 208
WIRE 528 304 528 256
WIRE 752 352 752 304
WIRE 320 368 320 320
WIRE 448 416 448 208
WIRE 448 416 432 416
WIRE 256 464 160 464
WIRE 368 464 336 464
WIRE 448 512 432 512
WIRE 448 544 448 512
FLAG 320 368 0
FLAG 64 176 0
FLAG 400 -144 0
FLAG 944 96 0
FLAG 1056 144 0
FLAG 160 544 0
FLAG 448 544 0
FLAG 1488 0 PWM_DSBL
FLAG 1296 32 0
FLAG 1152 16 0
FLAG 1184 112 OV_FAULT
FLAG 752 352 0
FLAG 880 176 SIG
FLAG 528 304 0
SYMBOL voltage 64 80 R0
WINDOW 123 0 0 Left 0
WINDOW 39 0 0 Left 0
SYMATTR InstName V1
SYMATTR Value PULSE(0 200 0 1 1 .1 2 2)
SYMBOL zener 336 208 R180
WINDOW 0 24 64 Left 2
WINDOW 3 24 0 Left 2
SYMATTR InstName D1
SYMATTR Value 1N5369B
SYMBOL res 304 224 R0
SYMATTR InstName R1
SYMATTR Value 10k
SYMBOL res 240 32 R90
WINDOW 0 0 56 VBottom 2
WINDOW 3 32 56 VTop 2
SYMATTR InstName R2
SYMATTR Value 10k
SYMBOL zener 336 112 R180
WINDOW 0 24 64 Left 2
WINDOW 3 24 0 Left 2
SYMATTR InstName D2
SYMATTR Value 1N5378B
SYMBOL npn 464 160 R0
SYMATTR InstName Q1
SYMATTR Value 2N2222
SYMBOL voltage 496 -144 R90
WINDOW 0 -32 56 VBottom 2
WINDOW 3 32 56 VTop 2
WINDOW 123 0 0 Left 0
WINDOW 39 0 0 Left 0
SYMATTR InstName V2
SYMATTR Value 3.3
SYMBOL res 512 -128 R0
SYMATTR InstName R3
SYMATTR Value 1k
SYMBOL pnp 688 112 M180
SYMATTR InstName Q2
SYMATTR Value 2N2907
SYMBOL OpAmps\\UniversalOpamp 1056 112 R0
SYMATTR InstName U1
SYMBOL voltage 1040 96 R90
WINDOW 0 -32 56 VBottom 2
WINDOW 3 32 56 VTop 2
WINDOW 123 0 0 Left 0
WINDOW 39 0 0 Left 0
SYMATTR InstName V3
SYMATTR Value 1.65
SYMBOL voltage 160 448 R0
WINDOW 123 0 0 Left 0
WINDOW 39 0 0 Left 0
SYMATTR InstName V4
SYMATTR Value PULSE(0 3.3 1.8 1e-6 1e-6 .05 .01 1)
SYMBOL OpAmps\\UniversalOpamp 1296 0 R0
SYMATTR InstName U2
SYMBOL voltage 1248 16 R90
WINDOW 0 -32 56 VBottom 2
WINDOW 3 32 56 VTop 2
WINDOW 123 0 0 Left 0
WINDOW 39 0 0 Left 0
SYMATTR InstName V5
SYMATTR Value 1.65
SYMBOL res 688 128 R90
WINDOW 0 0 56 VBottom 2
WINDOW 3 32 56 VTop 2
SYMATTR InstName R4
SYMATTR Value 1k
SYMBOL res 736 208 R0
SYMATTR InstName R6
SYMATTR Value 10k
SYMBOL npn 368 416 R0
SYMATTR InstName Q3
SYMATTR Value 2N2222
SYMBOL res 352 448 R90
WINDOW 0 0 56 VBottom 2
WINDOW 3 32 56 VTop 2
SYMATTR InstName R7
SYMATTR Value 1k
SYMBOL res 672 48 R90
WINDOW 0 0 56 VBottom 2
WINDOW 3 32 56 VTop 2
SYMATTR InstName R8
SYMATTR Value 1k
TEXT 32 392 Left 2 !.tran 0 2 0
