Version 4
SHEET 1 880 680
WIRE -32 144 -96 144
WIRE 144 144 48 144
WIRE 288 144 224 144
WIRE 384 144 288 144
WIRE 512 144 464 144
WIRE -96 160 -96 144
WIRE 512 176 512 144
WIRE 288 224 288 144
WIRE -96 272 -96 240
FLAG 96 288 0
FLAG 288 288 0
FLAG 512 176 0
FLAG -96 272 0
SYMBOL ind 128 160 R270
WINDOW 0 32 56 VTop 2
WINDOW 3 5 56 VBottom 2
SYMATTR InstName L1
SYMATTR Value 7.6µH
SYMATTR SpiceLine Rser=.0163
SYMBOL cap 272 224 R0
SYMATTR InstName C2
SYMATTR Value 20µf
SYMBOL cap 80 224 R0
SYMATTR InstName C1
SYMATTR Value 20µf
SYMBOL current 384 144 R270
WINDOW 0 32 40 VTop 2
WINDOW 3 -32 40 VBottom 2
WINDOW 123 0 0 Left 0
WINDOW 39 0 0 Left 0
SYMATTR InstName I1
SYMATTR Value PULSE(2.91 7.57 0 1.3157e-5 1.3157e-5 2.631e-7 2.63157e-5 500)
SYMBOL voltage -96 144 R0
WINDOW 123 0 0 Left 0
WINDOW 39 0 0 Left 0
SYMATTR InstName V1
SYMATTR Value 48
SYMBOL res -48 160 R270
WINDOW 0 32 56 VTop 2
WINDOW 3 0 56 VBottom 2
SYMATTR InstName R1
SYMATTR Value .0001
TEXT -130 312 Left 2 !.tran 0 .02 0
