Version 4
SHEET 1 1572 680
WIRE 0 64 -112 64
WIRE 112 64 0 64
WIRE 288 64 192 64
WIRE 416 64 288 64
WIRE -112 80 -112 64
WIRE 0 160 0 64
WIRE 416 160 416 64
WIRE -112 320 -112 160
WIRE 0 320 0 224
WIRE 0 320 -112 320
WIRE 416 320 416 240
WIRE 416 320 0 320
WIRE 0 352 0 320
FLAG 0 352 0
FLAG 288 64 Array_out
SYMBOL res 96 80 R270
WINDOW 0 32 56 VTop 2
WINDOW 3 0 56 VBottom 2
SYMATTR InstName R1
SYMATTR Value 0.010
SYMBOL diode -16 160 R0
SYMATTR InstName D1
SYMATTR Value DiodeSolarCell
SYMBOL current -112 160 R180
WINDOW 0 24 80 Left 2
WINDOW 3 24 0 Left 2
WINDOW 123 0 0 Left 0
WINDOW 39 0 0 Left 0
SYMATTR InstName I1
SYMATTR Value 7A
SYMBOL voltage 416 144 R0
WINDOW 123 0 0 Left 0
WINDOW 39 0 0 Left 0
SYMATTR InstName V1
SYMATTR Value 0
TEXT -176 328 Left 2 !.dc V1 0.1 45
TEXT -176 424 Left 2 !.model DiodeSolarCell D LEVEL=1 IS=8.0411e-10 N=72.2592 EG=80.2077 XTI=216.7776
